EEL
     RDKit          3D

 32 31  0  0  0  0  0  0  0  0999 V2000
  -10.8762   30.8425 1282.0721 C   0  0  0  0  0  0  0  0  0  0  0  0
  -11.7255   31.8630 1282.7549 C   0  0  0  0  0  0  0  0  0  0  0  0
  -12.0071   32.9949 1281.9818 O   0  0  0  0  0  0  0  0  0  0  0  0
  -12.6710   32.9768 1280.7688 C   0  0  0  0  0  0  0  0  0  0  0  0
  -13.0457   31.8541 1280.3368 O   0  0  0  0  0  0  0  0  0  0  0  0
  -12.9638   34.1718 1279.9609 C   0  0  1  0  0  0  0  0  0  0  0  0
  -12.4632   35.3722 1280.6066 N   0  0  0  0  0  4  0  0  0  0  0  0
  -12.3167   33.9736 1278.5938 C   0  0  0  0  0  0  0  0  0  0  0  0
  -10.8406   33.8004 1278.6950 C   0  0  0  0  0  0  0  0  0  0  0  0
  -10.1826   33.5985 1277.3562 C   0  0  0  0  0  0  0  0  0  0  0  0
  -10.4024   34.7674 1276.4249 C   0  0  0  0  0  0  0  0  0  0  0  0
   -9.7316   34.5059 1275.1476 N   0  0  0  0  0  4  0  0  0  0  0  0
  -11.0407   29.8586 1282.6013 H   0  0  0  0  0  0  0  0  0  0  0  0
  -11.1487   30.6722 1281.0220 H   0  0  0  0  0  0  0  0  0  0  0  0
   -9.8036   31.0833 1282.1949 H   0  0  0  0  0  0  0  0  0  0  0  0
  -11.1881   32.2060 1283.6667 H   0  0  0  0  0  0  0  0  0  0  0  0
  -12.6605   31.3442 1283.1056 H   0  0  0  0  0  0  0  0  0  0  0  0
  -14.0422   34.3338 1279.7729 H   0  0  0  0  0  0  0  0  0  0  0  0
  -13.0646   35.5376 1281.4444 H   0  0  0  0  0  0  0  0  0  0  0  0
  -11.5005   35.1805 1280.9574 H   0  0  0  0  0  0  0  0  0  0  0  0
  -12.5349   36.1994 1280.0037 H   0  0  0  0  0  0  0  0  0  0  0  0
  -12.7603   33.0410 1278.1868 H   0  0  0  0  0  0  0  0  0  0  0  0
  -12.5984   34.7816 1277.9021 H   0  0  0  0  0  0  0  0  0  0  0  0
  -10.6036   32.8980 1279.3098 H   0  0  0  0  0  0  0  0  0  0  0  0
  -10.3278   34.6431 1279.2020 H   0  0  0  0  0  0  0  0  0  0  0  0
   -9.0774   33.4814 1277.4484 H   0  0  0  0  0  0  0  0  0  0  0  0
  -10.5814   32.6921 1276.8470 H   0  0  0  0  0  0  0  0  0  0  0  0
  -10.0323   35.7037 1276.8510 H   0  0  0  0  0  0  0  0  0  0  0  0
  -11.4909   34.8915 1276.2189 H   0  0  0  0  0  0  0  0  0  0  0  0
   -8.7480   34.8622 1275.1896 H   0  0  0  0  0  0  0  0  0  0  0  0
   -9.6647   33.4638 1275.0401 H   0  0  0  0  0  0  0  0  0  0  0  0
  -10.2431   34.9469 1274.3701 H   0  0  0  0  0  0  0  0  0  0  0  0
  1  2  1  0
  2  3  1  0
  3  4  1  0
  4  5  2  0
  4  6  1  0
  6  7  1  0
  6  8  1  0
  8  9  1  0
  9 10  1  0
 10 11  1  0
 11 12  1  0
  1 13  1  0
  1 14  1  0
  1 15  1  0
  2 16  1  0
  2 17  1  0
  6 18  1  6
  7 19  1  0
  7 20  1  0
  7 21  1  0
  8 22  1  0
  8 23  1  0
  9 24  1  0
  9 25  1  0
 10 26  1  0
 10 27  1  0
 11 28  1  0
 11 29  1  0
 12 30  1  0
 12 31  1  0
 12 32  1  0
M  CHG  2   7   1  12   1
M  END
>  <dG>  (1) 
-4.8

$$$$
