CAT-13n
     RDKit          3D

 44 47  0  0  1  0  0  0  0  0999 V2000
   11.7505   -2.1054    1.1746 C   0  0  0  0  0  0  0  0  0  0  0  0
   13.0754   -2.4192    0.6266 N   0  0  0  0  0  0  0  0  0  0  0  0
   14.2390   -2.4823    1.2955 C   0  0  0  0  0  0  0  0  0  0  0  0
   14.4006   -2.3325    2.6153 N   0  0  0  0  0  0  0  0  0  0  0  0
   15.2678   -2.7183    0.4810 N   0  0  0  0  0  0  0  0  0  0  0  0
   14.8335   -2.9708   -0.8899 C   0  0  1  0  0  0  0  0  0  0  0  0
   15.4350   -1.9353   -1.8793 C   0  0  0  0  0  0  0  0  0  0  0  0
   15.9253   -2.2767   -3.1639 C   0  0  0  0  0  0  0  0  0  0  0  0
   16.4040   -1.2874   -4.0316 C   0  0  0  0  0  0  0  0  0  0  0  0
   16.3188    0.0686   -3.6777 C   0  0  0  0  0  0  0  0  0  0  0  0
   15.8043    0.4637   -2.4251 C   0  0  0  0  0  0  0  0  0  0  0  0
   15.5944    1.8953   -2.0972 C   0  0  0  0  0  0  0  0  0  0  0  0
   15.2922    2.8269   -3.1186 C   0  0  0  0  0  0  0  0  0  0  0  0
   14.9797    4.1676   -2.8198 C   0  0  0  0  0  0  0  0  0  0  0  0
   14.9709    4.6063   -1.4854 C   0  0  0  0  0  0  0  0  0  0  0  0
   15.3020    3.7099   -0.4571 C   0  0  0  0  0  0  0  0  0  0  0  0
   15.2993    4.2576    1.1787 Cl  0  0  0  0  0  0  0  0  0  0  0  0
   15.6141    2.3700   -0.7636 C   0  0  0  0  0  0  0  0  0  0  0  0
   15.4167   -0.5574   -1.5263 C   0  0  0  0  0  0  0  0  0  0  0  0
   15.0325   -4.4912   -1.1330 C   0  0  0  0  0  0  0  0  0  0  0  0
   14.1933   -5.3344   -0.5177 N   0  0  0  0  0  0  0  0  0  0  0  0
   14.3980   -6.6537   -0.6631 C   0  0  0  0  0  0  0  0  0  0  0  0
   15.4737   -7.1474   -1.4002 C   0  0  0  0  0  0  0  0  0  0  0  0
   16.3282   -6.1963   -1.9576 C   0  0  0  0  0  0  0  0  0  0  0  0
   16.1149   -4.8884   -1.7939 N   0  0  0  0  0  0  0  0  0  0  0  0
   13.3292   -2.6538   -0.7567 C   0  0  0  0  0  0  0  0  0  0  0  0
   12.4696   -2.5729   -1.6463 O   0  0  0  0  0  0  0  0  0  0  0  0
   10.9706   -2.6750    0.6661 H   0  0  0  0  0  0  0  0  0  0  0  0
   11.6995   -2.3376    2.2387 H   0  0  0  0  0  0  0  0  0  0  0  0
   11.5418   -1.0440    1.0335 H   0  0  0  0  0  0  0  0  0  0  0  0
   15.3413   -2.3802    3.0106 H   0  0  0  0  0  0  0  0  0  0  0  0
   15.9512   -3.2887   -3.5363 H   0  0  0  0  0  0  0  0  0  0  0  0
   16.8058   -1.5771   -4.9912 H   0  0  0  0  0  0  0  0  0  0  0  0
   16.6347    0.8051   -4.4004 H   0  0  0  0  0  0  0  0  0  0  0  0
   15.2450    2.5045   -4.1481 H   0  0  0  0  0  0  0  0  0  0  0  0
   14.7178    4.8557   -3.6102 H   0  0  0  0  0  0  0  0  0  0  0  0
   14.7085    5.6275   -1.2482 H   0  0  0  0  0  0  0  0  0  0  0  0
   15.8539    1.7016    0.0459 H   0  0  0  0  0  0  0  0  0  0  0  0
   15.0131   -0.2646   -0.5696 H   0  0  0  0  0  0  0  0  0  0  0  0
   13.6949   -7.3190   -0.1836 H   0  0  0  0  0  0  0  0  0  0  0  0
   15.6326   -8.2070   -1.5234 H   0  0  0  0  0  0  0  0  0  0  0  0
   17.1962   -6.4808   -2.5297 H   0  0  0  0  0  0  0  0  0  0  0  0
   13.6599   -2.0568    3.2578 H   0  0  0  0  0  0  0  0  0  0  0  0
   16.2238   -2.7219    0.7743 H   0  0  0  0  0  0  0  0  0  0  0  0
  1  2  1  0
  1 28  1  0
  1 29  1  0
  1 30  1  0
  2  3  1  0
  2 26  1  0
  3  4  1  0
  3  5  2  0
  4 31  1  0
  4 43  1  0
  5  6  1  0
  6  7  1  6
  6 20  1  0
  6 26  1  0
  7  8  2  0
  7 19  1  0
  8  9  1  0
  8 32  1  0
  9 10  2  0
  9 33  1  0
 10 11  1  0
 10 34  1  0
 11 12  1  0
 11 19  2  0
 12 13  2  0
 12 18  1  0
 13 14  1  0
 13 35  1  0
 14 15  2  0
 14 36  1  0
 15 16  1  0
 15 37  1  0
 16 17  1  0
 16 18  2  0
 18 38  1  0
 19 39  1  0
 20 21  2  0
 20 25  1  0
 21 22  1  0
 22 23  2  0
 22 40  1  0
 23 24  1  0
 23 41  1  0
 24 25  2  0
 24 42  1  0
 26 27  2  0
  5 44  1  0
M  CHG  1   5   1
M  END
>  <dG_exp>  (1) 
-8.5429999999999993

$$$$
