Comp_3
     RDKit          3D

 41 44  0  0  1  0  0  0  0  0999 V2000
    8.0362   -1.2106   21.4897 C   0  0  0  0  0  0  0  0  0  0  0  0
    8.7318    0.7556   22.6222 C   0  0  0  0  0  0  0  0  0  0  0  0
    8.0550   -0.4667   22.6747 C   0  0  0  0  0  0  0  0  0  0  0  0
    7.4003   -0.9441   23.9723 C   0  0  0  0  0  0  0  0  0  0  0  0
    6.7583   -0.0086   24.8005 C   0  0  0  0  0  0  0  0  0  0  0  0
    8.5688   -1.5473   19.0853 C   0  0  0  0  0  0  0  0  0  0  0  0
    6.1616   -0.4184   26.0015 C   0  0  0  0  0  0  0  0  0  0  0  0
    6.2028   -1.7688   26.3657 C   0  0  0  0  0  0  0  0  0  0  0  0
    6.8363   -2.7053   25.5403 C   0  0  0  0  0  0  0  0  0  0  0  0
    7.4309   -2.2904   24.3443 C   0  0  0  0  0  0  0  0  0  0  0  0
    7.3538   -1.5607   18.3897 C   0  0  0  0  0  0  0  0  0  0  0  0
    8.3635   -2.9419   16.6965 C   0  0  0  0  0  0  0  0  0  0  0  0
    9.5764   -2.9255   17.3956 C   0  0  0  0  0  0  0  0  0  0  0  0
    9.6882   -2.2183   18.5978 C   0  0  0  0  0  0  0  0  0  0  0  0
    9.2927    0.4316   20.2447 C   0  0  0  0  0  0  0  0  0  0  0  0
    9.3209    1.1934   21.4191 C   0  0  0  0  0  0  0  0  0  0  0  0
   10.0635    2.5312   21.4091 C   0  0  0  0  0  0  0  0  0  0  0  0
   10.7695    2.8502   22.5749 C   0  0  0  0  0  0  0  0  0  0  0  0
   10.0990    3.4251   20.3169 C   0  0  0  0  0  0  0  0  0  0  0  0
   11.5085    4.9061   21.5920 C   0  0  0  0  0  0  0  0  0  0  0  0
    8.6279   -0.7887   20.3149 N   0  0  0  0  0  0  0  0  0  0  0  0
    7.2456   -2.2630   17.1826 N   0  0  0  0  0  0  0  0  0  0  0  0
   10.8168    4.6020   20.4306 N   0  0  0  0  0  0  0  0  0  0  0  0
   11.4895    4.0332   22.6723 N   0  0  0  0  0  0  0  0  0  0  0  0
    7.3856   -2.4251   21.5190 O   0  0  0  0  0  0  0  0  0  0  0  0
    9.4905    3.2114   19.1875 O   0  0  0  0  0  0  0  0  0  0  0  0
   12.1821    6.0144   21.6632 O   0  0  0  0  0  0  0  0  0  0  0  0
    5.3729    0.7672   27.0845 Cl  0  0  0  0  0  0  0  0  0  0  0  0
    8.7763    1.3733   23.5075 H   0  0  0  0  0  0  0  0  0  0  0  0
    6.7162    1.0345   24.5253 H   0  0  0  0  0  0  0  0  0  0  0  0
    5.7406   -2.0898   27.2842 H   0  0  0  0  0  0  0  0  0  0  0  0
    7.9653   -2.9978   23.7354 H   0  0  0  0  0  0  0  0  0  0  0  0
    6.4786   -1.0396   18.7516 H   0  0  0  0  0  0  0  0  0  0  0  0
    8.2007   -3.5773   15.8545 H   0  0  0  0  0  0  0  0  0  0  0  0
   10.4173   -3.4912   17.0223 H   0  0  0  0  0  0  0  0  0  0  0  0
   10.6233   -2.2117   19.1393 H   0  0  0  0  0  0  0  0  0  0  0  0
    9.7045    0.6882   19.2812 H   0  0  0  0  0  0  0  0  0  0  0  0
   10.8392    2.2472   23.4673 H   0  0  0  0  0  0  0  0  0  0  0  0
   10.8644    5.2366   19.6463 H   0  0  0  0  0  0  0  0  0  0  0  0
   12.0036    4.2890   23.5039 H   0  0  0  0  0  0  0  0  0  0  0  0
    6.8653   -3.7460   25.8276 H   0  0  0  0  0  0  0  0  0  0  0  0
  1  3  1  0
  1 21  1  0
  1 25  2  0
  2  3  2  0
  2 16  1  0
  2 29  1  0
  3  4  1  0
  4  5  2  0
  4 10  1  0
  5  7  1  0
  5 30  1  0
  6 11  2  0
  6 14  1  0
  6 21  1  0
  7  8  2  0
  7 28  1  0
  8  9  1  0
  8 31  1  0
  9 10  2  0
  9 41  1  0
 10 32  1  0
 11 22  1  0
 11 33  1  0
 12 13  1  0
 12 22  2  0
 12 34  1  0
 13 14  2  0
 13 35  1  0
 14 36  1  0
 15 16  2  0
 15 21  1  0
 15 37  1  0
 16 17  1  0
 17 18  2  0
 17 19  1  0
 18 24  1  0
 18 38  1  0
 19 23  1  0
 19 26  2  0
 20 23  1  0
 20 24  1  0
 20 27  2  0
 23 39  1  0
 24 40  1  0
M  END
$$$$
