Comp_2_Ref


 42 45  0  0  1  0            999 V2000
    9.4669    0.4909   20.8994 C   0  0  0  0  0  0
    9.5195    1.2099   22.1370 C   0  0  0  0  0  0
   10.4330    2.4220   22.2798 C   0  0  0  0  0  0
   10.5630    3.4317   21.3005 C   0  0  0  0  0  0
    9.7463    3.4056   20.0120 C   0  0  0  0  0  0
   11.4555    4.4973   21.5080 C   0  0  0  0  0  0
    7.1187   -2.2503   21.7234 O   0  0  0  0  0  0
    7.8940   -1.1119   21.8760 C   0  0  0  0  0  0
    8.5631   -1.3673   19.5069 C   0  0  0  0  0  0
    7.3470   -1.3955   18.8080 C   0  0  0  0  0  0
    8.4003   -2.6913   17.0469 C   0  0  0  0  0  0
    9.6179   -2.6642   17.7487 C   0  0  0  0  0  0
    9.7012   -1.9897   18.9776 C   0  0  0  0  0  0
   12.2252    4.5516   22.6811 C   0  0  0  0  0  0
   12.1050    3.5496   23.6499 C   0  0  0  0  0  0
   11.2153    2.4899   23.4443 C   0  0  0  0  0  0
    8.7588    0.7061   23.2569 C   0  0  0  0  0  0
    7.9448   -0.4340   23.1004 C   0  0  0  0  0  0
    7.1499   -0.9056   24.3201 C   0  0  0  0  0  0
    6.5839    0.0566   25.1805 C   0  0  0  0  0  0
    5.8590   -0.3782   26.3127 C   0  0  0  0  0  0
    5.7162   -1.7457   26.5934 C   0  0  0  0  0  0
    6.2963   -2.7112   25.7479 C   0  0  0  0  0  0
    7.0003   -2.2831   24.5987 C   0  0  0  0  0  0
    8.6320   -0.6679   20.7816 N   0  0  0  0  0  0
    7.2613   -2.0554   17.5805 N   0  0  0  0  0  0
    9.1347    3.3720   19.0563 N   0  0  0  0  0  0
    5.1457    0.8013   27.4276 Cl  0  0  0  0  0  0
    9.9975    0.7232   19.9910 H   0  0  0  0  0  0
   11.5629    5.2793   20.7709 H   0  0  0  0  0  0
    6.4513   -0.9240   19.1869 H   0  0  0  0  0  0
    8.2807   -3.2273   16.1231 H   0  0  0  0  0  0
   10.4863   -3.1611   17.3419 H   0  0  0  0  0  0
   10.6379   -1.9535   19.5077 H   0  0  0  0  0  0
   12.9096    5.3694   22.8445 H   0  0  0  0  0  0
   12.6991    3.5922   24.5509 H   0  0  0  0  0  0
   11.1489    1.7206   24.2000 H   0  0  0  0  0  0
    8.8095    1.2233   24.2048 H   0  0  0  0  0  0
    6.6772    1.1141   24.9842 H   0  0  0  0  0  0
    5.1558   -2.0646   27.4557 H   0  0  0  0  0  0
    7.4847   -2.9940   23.9523 H   0  0  0  0  0  0
    6.2000   -3.7613   25.9814 H   0  0  0  0  0  0
  1  2  2  0  0  0
  1 25  1  0  0  0
  1 29  1  0  0  0
  2  3  1  0  0  0
  2 17  1  0  0  0
  3  4  2  0  0  0
  3 16  1  0  0  0
  4  5  1  0  0  0
  4  6  1  0  0  0
  5 27  3  0  0  0
  6 14  2  0  0  0
  6 30  1  0  0  0
  7  8  2  0  0  0
  8 18  1  0  0  0
  8 25  1  0  0  0
  9 10  1  0  0  0
  9 13  2  0  0  0
  9 25  1  0  0  0
 10 26  2  0  0  0
 10 31  1  0  0  0
 11 12  2  0  0  0
 11 26  1  0  0  0
 11 32  1  0  0  0
 12 13  1  0  0  0
 12 33  1  0  0  0
 13 34  1  0  0  0
 14 15  1  0  0  0
 14 35  1  0  0  0
 15 16  2  0  0  0
 15 36  1  0  0  0
 16 37  1  0  0  0
 17 18  2  0  0  0
 17 38  1  0  0  0
 18 19  1  0  0  0
 19 20  1  0  0  0
 19 24  2  0  0  0
 20 21  2  0  0  0
 20 39  1  0  0  0
 21 22  1  0  0  0
 21 28  1  0  0  0
 22 23  2  0  0  0
 22 40  1  0  0  0
 23 24  1  0  0  0
 23 42  1  0  0  0
 24 41  1  0  0  0
M  END
>  <IC50[nM]>
9990

$$$$
